
 OpenBabel03071213D

 34 34  0  0  0  0  0  0  0  0999 V2000
   45.6740  -13.7880   43.1090 C   0  0  0  0  0
   41.1630   -5.4480   48.4790 C   0  0  0  0  0
   44.5630   -9.2310   36.6600 C   0  0  0  0  0
   46.9350   -7.9210   44.3350 O   0  0  0  0  0
   47.1520   -7.5390   42.2180 O   0  0  0  0  0
   44.7330   -7.0880   37.6820 O   0  0  0  0  0
   42.9840   -9.8300   41.0350 O   0  0  0  0  0
   41.1700   -8.1200   43.4080 O   0  0  0  0  0
   44.4660  -12.8770   43.4050 C   0  0  0  0  0
   41.1620   -6.9710   48.4190 C   0  0  0  0  0
   44.6400  -12.0510   44.6530 C   0  0  0  0  0
   41.0080   -7.4330   47.0000 C   0  0  0  0  0
   43.3090  -11.3700   44.6620 C   0  0  0  0  0
   41.0950   -8.9380   47.0430 C   0  0  0  0  0
   44.1300   -6.9690   43.9910 C   0  0  0  0  0
   43.3590  -10.0850   45.4580 C   0  0  0  0  0
   40.9270   -9.5980   45.6950 C   0  0  0  0  0
   45.3750   -6.4380   43.3250 C   0  0  0  0  0
   41.2230   -7.7330   39.5770 C   0  0  0  0  0
   43.2450   -8.6020   38.5290 N   0  0  0  0  0
   43.2610   -7.7270   41.8960 N   0  0  0  0  0
   39.8380   -5.7310   36.0960 C   0  0  0  0  0
   39.6750   -7.0980   36.2050 C   0  0  0  0  0
   40.4900   -5.0230   37.0660 C   0  0  0  0  0
   40.1550   -7.7460   37.3250 C   0  0  0  0  0
   40.9540   -5.6820   38.1710 C   0  0  0  0  0
   43.5320   -8.1320   43.2420 C   0  0  0  0  0
   42.7180   -7.8550   39.6520 C   0  0  0  0  0
   42.1750   -9.3920   44.9650 N   0  0  0  0  0
   46.5620   -7.3880   43.2880 C   0  0  0  0  0
   44.2370   -8.2120   37.7350 C   0  0  0  0  0
   43.0310   -8.5870   40.9380 C   0  0  0  0  0
   40.7870   -7.0350   38.3170 C   0  0  0  0  0
   42.2220   -8.5590   43.8920 C   0  0  0  0  0
  1  9  1  0  0  0
  2 10  1  0  0  0
  3 31  1  0  0  0
  4 30  1  0  0  0
  5 30  2  0  0  0
  6 31  2  0  0  0
  7 32  2  0  0  0
  8 34  2  0  0  0
  9 11  1  0  0  0
 10 12  1  0  0  0
 11 13  1  0  0  0
 12 14  1  0  0  0
 13 16  1  0  0  0
 14 17  1  0  0  0
 15 18  1  0  0  0
 15 27  1  0  0  0
 16 29  1  0  0  0
 17 29  1  0  0  0
 18 30  1  0  0  0
 19 28  1  0  0  0
 19 33  1  0  0  0
 20 28  1  0  0  0
 20 31  1  0  0  0
 21 27  1  0  0  0
 21 32  1  0  0  0
 22 23  2  0  0  0
 22 24  1  0  0  0
 23 25  1  0  0  0
 24 26  2  0  0  0
 25 33  2  0  0  0
 26 33  1  0  0  0
 27 34  1  0  0  0
 28 32  1  0  0  0
 29 34  1  0  0  0
M  END
>  <MOLID> (1a07C1)
1a07C1

>  <SMILES_CANONICAL> (1a07C1)
CCCCCN(C(=O)[C@@H](NC(=O)[C@H](Cc1ccccc1)NC(=O)C)CCC(=O)O)CCCCC	

>  <FINGERPRINT> (1a07C1)
0000000000000011000000000000000000000001000000000011001000000000000000000001000000000001000000000000010000000001000001100000000000000000000110000000000000000000000000000000000000000000000000000000000000000000000000000000000000100000000000000000000000001100000000000000000000001000100000000000000000001010000010001100000000001000001100000000000000000000010000000000000110110000000000000000011000000000100000000011001000000001000000000010000000000001100000000000000000000000000000000000000000001100000000000000100000000000000000000000000000000000000000100000000000000000000000000000000001000000000000000000100000000000000000000000001000000001000000000000000000000001000000000011100000100100000011100000000000000001000000000000000000000011100000110101000000000000000110000000000000000000000010000000000010000000000000000000000000000000000000000000000000000000000000000001000000000000000000000000000000001100000000000000000000000000000000000000011000000000000010110010000000000000010000000000000000000000100000000010111000000000

>  <MACCS166> (1a07C1)
000000000000000000000000000000000000000000000000010001000000000000000000000100100000110001110010001000010001011001111100011000011011000101111100011110101111111110111000

>  <OB_MW> (1a07C1)
475.305

>  <OB_logP> (1a07C1)
4.0742

>  <OB_PSA> (1a07C1)
115.81

>  <OB_MR> (1a07C1)
133.612

>  <MCT_HBD> (1a07C1)
3

>  <MCT_HBA> (1a07C1)
8

>  <ENSEMBLE_TOTAL> (1a07C1)
20

>  <ENSEMBLE_RMSD> (1a07C1)
2.561 3.050 3.197 3.290 3.293 3.332 3.362 3.378 3.443 3.491 3.588 3.669 3.686 3.686 3.772 3.839 3.880 3.944 4.121 4.337

>  <ENSEMBLE_COORDS> (1a07C1)
-6.2613 -0.3274 2.9466 1.4917 -4.1586 -0.7231 1.9067 3.5260 -4.5706 4.4434 -0.1929 1.0604 5.2936 1.9097 1.3131 0.6249 3.7617 -2.5672 2.6205 0.5459 -1.1047 -0.8026 1.8637 2.2508 -4.9791 -1.0696 2.6679 0.6998 -3.0631 -0.0559 -3.9311 -0.6619 3.6728 1.2636 -2.8022 1.3172 -2.5688 -1.0081 3.1336 0.1495 -2.4255 2.2579 2.1152 1.8160 1.7010 -1.4963 -0.2957 3.9252 0.6180 -1.3424 3.2034 3.2847 1.2606 2.4810 0.3098 -0.5140 -2.9027 1.3227 1.6521 -3.2578 0.6174 0.8032 0.0498 -3.8903 -1.3075 -3.1365 -3.1826 -1.8233 -2.1155 -3.2263 -0.5075 -4.1504 -1.7566 -1.5692 -2.0217 -1.9029 -0.2818 -4.0710 1.1287 0.7080 1.3985 0.5597 0.8616 -2.3200 -0.2790 -0.2070 3.1499 4.4453 1.0664 1.5598 1.1996 3.0192 -3.3546 1.4056 0.7114 -1.0803 -1.1434 -0.8160 -2.9523 -0.0800 0.8682 2.2953

>  <OB_ATOM_TYPES> (1a07C1)
C.3 C.3 C.3 O.co2 O.co2 O.2 O.2 O.2 C.3 C.3 C.3 C.3 C.3 C.3 C.3 C.3 C.3 C.3 C.3 N.am N.am C.ar C.ar C.ar C.ar C.ar C.3 C.3 N.am C.2 C.2 C.2 C.ar C.2

>  <OB_ATOMIC_CHARGES> (1a07C1)
0.0000 0.0000 0.0964 -0.2457 -0.2457 -0.2733 -0.2715 -0.2730 0.0001 0.0001 0.0018 0.0018 0.0215 0.0215 0.0428 0.0934 0.0934 0.1163 0.0574 -0.1974 -0.1964 -0.0000 -0.0003 -0.0003 -0.0042 -0.0042 0.1718 0.1770 -0.2782 0.3649 0.2423 0.2619 -0.0200 0.2455

$$$$
